data_generated by cell class

_audit_creation_date               2016-03-04
_audit_creation_method             'generated by cell class'

_chemical_formula_sum              'A32'

_symmetry_space_group_name_H-M     'P1'
_symmetry_Int_Tables_number        1

_cell_length_a                     8.0000000
_cell_length_b                     8.0000000
_cell_length_c                     8.0000000
_cell_angle_alpha                  90.0000000
_cell_angle_beta                   90.0000000
_cell_angle_gamma                  90.0000000
_cell_volume                       512.0
_cell_formula_units_Z              1

loop_
_atom_site_label
_atom_site_type_symbol
_atom_site_fract_x
_atom_site_fract_y
_atom_site_fract_z
_atom_site_U_iso_or_equiv
_atom_site_adp_type
_atom_site_occupancy
A1      A    0.00000   0.00000   0.00000   0.00000  Uiso   1.00
A2      A    0.00000   0.25000   0.25000   0.00000  Uiso   1.00
A3      A    0.25000   0.00000   0.25000   0.00000  Uiso   1.00
A4      A    0.25000   0.25000   0.00000   0.00000  Uiso   1.00
A5      A    0.00000   0.00000   0.50000   0.00000  Uiso   1.00
A6      A    0.00000   0.25000   0.75000   0.00000  Uiso   1.00
A7      A    0.25000   0.00000   0.75000   0.00000  Uiso   1.00
A8      A    0.25000   0.25000   0.50000   0.00000  Uiso   1.00
A9      A    0.00000   0.50000   0.00000   0.00000  Uiso   1.00
A10     A    0.00000   0.75000   0.25000   0.00000  Uiso   1.00
A11     A    0.25000   0.50000   0.25000   0.00000  Uiso   1.00
A12     A    0.25000   0.75000   0.00000   0.00000  Uiso   1.00
A13     A    0.00000   0.50000   0.50000   0.00000  Uiso   1.00
A14     A    0.00000   0.75000   0.75000   0.00000  Uiso   1.00
A15     A    0.25000   0.50000   0.75000   0.00000  Uiso   1.00
A16     A    0.25000   0.75000   0.50000   0.00000  Uiso   1.00
A17     A    0.50000   0.00000   0.00000   0.00000  Uiso   1.00
A18     A    0.50000   0.25000   0.25000   0.00000  Uiso   1.00
A19     A    0.75000   0.00000   0.25000   0.00000  Uiso   1.00
A20     A    0.75000   0.25000   0.00000   0.00000  Uiso   1.00
A21     A    0.50000   0.00000   0.50000   0.00000  Uiso   1.00
A22     A    0.50000   0.25000   0.75000   0.00000  Uiso   1.00
A23     A    0.75000   0.00000   0.75000   0.00000  Uiso   1.00
A24     A    0.75000   0.25000   0.50000   0.00000  Uiso   1.00
A25     A    0.50000   0.50000   0.00000   0.00000  Uiso   1.00
A26     A    0.50000   0.75000   0.25000   0.00000  Uiso   1.00
A27     A    0.75000   0.50000   0.25000   0.00000  Uiso   1.00
A28     A    0.75000   0.75000   0.00000   0.00000  Uiso   1.00
A29     A    0.50000   0.50000   0.50000   0.00000  Uiso   1.00
A30     A    0.50000   0.75000   0.75000   0.00000  Uiso   1.00
A31     A    0.75000   0.50000   0.75000   0.00000  Uiso   1.00
A32     A    0.75000   0.75000   0.50000   0.00000  Uiso   1.00
